52
Coordinates from ORCA-job di740 E -2578.294566231802
  F           0.52970397138701     -2.78385632650255     -1.08215967675775
  C          -3.58473154184622     -0.59695294178142     -0.21594355192783
  S          -3.24233977946252      1.11761192166891     -0.06430875522588
  C           2.76531558760686     -0.70891013686814      0.62515652645203
  C          -1.56380329415506      0.79447877344602      0.13078543525916
  C          -1.31010083348631     -0.59826356525010      0.06753053648525
  F           3.36190093138359      1.80590041329916      1.94310231135425
  C           4.38767540169260     -2.22551034211706      0.81492313470432
  C          -2.45906332215416     -1.38009374697506     -0.12798272360032
  N           0.00244494906061     -0.82522480824952      0.22174682510379
  C           2.74798841401001      1.75957217695327      0.75216439024814
  H          -2.46267454189002     -2.45891367273912     -0.17320887119693
  C           0.62091368185919      0.40633387369279      0.38264358414959
  F           0.13744482964618     -3.05451730818700      1.13568513969880
  B           0.68144915438160     -2.21937928348772      0.17392072772294
  C          -0.36667120504133      1.43650084949146      0.32566476231518
  C           2.00112958772635      0.45795424872867      0.57550374691675
  H          -5.86567409605334      0.81823928593426      0.18248003070444
  H          -0.18816445925762      2.49164312570340      0.42267191327780
  C           4.16354373094099     -0.87037795594636      0.84177364319735
  F           1.97395749781833      2.84216132739559      0.67842247127267
  N           2.17494548509553     -1.94882823938346      0.47064011456819
  C           3.14593206485524     -2.86916625651316      0.58209441682714
  C           3.22773361031666     -4.26906445249993      0.53645943852416
  C           4.51842286889093     -4.69907360953315      0.73085490593373
  S           5.65263090150150     -3.38160274665308      0.96642613066183
  F           3.69724056891586      1.90113188428264     -0.18306895927712
  H           4.87210796624517     -0.07426697689214      0.99770961456130
  C           4.99908667699472     -6.06860253535645      0.75167082281795
  C           4.21659184324929     -7.10806163072893      0.23795385264995
  C           4.65852134455081     -8.41523382096318      0.26054134064611
  C           5.90564526887661     -8.72246918791446      0.79799851764041
  C           6.70282620415744     -7.70328016420112      1.30881813336462
  C           6.25133991530791     -6.40080878491053      1.28256180596668
  O           6.38918952156760     -9.98249937802112      0.84580433483828
  H           6.87946085735601     -5.62279709198594      1.70259186934608
  H           3.25268838344740     -6.88834006395487     -0.20441757072760
  H           5.74672617489153    -10.58999038938779      0.46780018341439
  H           4.03493036998328     -9.20399935805271     -0.14963675252203
  H           2.38155061172642     -4.92598271522746      0.40011069523319
  C          -4.95276332560395     -1.03631664329352     -0.42031583537917
  C          -5.22936432598205     -2.33502825657494     -0.86943690196150
  C          -6.03789362175022     -0.18920883934876     -0.18006789081312
  C          -7.33819586995567     -0.61403427266250     -0.37143158250882
  C          -6.52223862025004     -2.76896640683488     -1.06238272277467
  C          -7.58890486352794     -1.90898281551941     -0.81304552270695
  O          -8.83652102170911     -2.38265433614183     -1.01859679576169
  H          -9.48024519260648     -1.69704633730805     -0.81797864915014
  H          -4.41244579312485     -3.01146174195468     -1.08892844510326
  H          -8.16407205225230      0.06209569498532     -0.17206554374224
  H          -6.72819021341653     -3.77201091817199     -1.41519972288524
  H           7.67033059808246     -7.95170051748723      1.72725311816579
